Circuit: * C:\Users\matth\MooreSTI011.asc

Warning: Multiple definitions of model "nmos_12" Type: EKV
Warning: Multiple definitions of model "pmos_12" Type: EKV
WARNING: Less than two connections to node NC_02.  This node is used by V1.
Direct Newton iteration for .op point succeeded.

Date: Sat Nov 13 18:21:52 2021
Total elapsed time: 0.669 seconds.

tnom = 27
temp = 27
method = modified trap
totiter = 29680
traniter = 29631
tranpoints = 5482
accept = 4372
rejected = 1110
matrix size = 116
fillins = 96
solver = Normal
Thread vector: 64.2/16.5[8] 13.4/4.1[8] 3.6/2.1[8] 0.7/1.5[1]  2592/500
Matrix Compiler1: 13.86 KB object code size  3.0/1.8/[0.8]
Matrix Compiler2: 13.12 KB object code size  1.6/2.2/[1.0]

