Circuit: * C:\Users\matth\MooreSTI.asc

Warning: Multiple definitions of model "nmos_12" Type: EKV
Warning: Multiple definitions of model "pmos_12" Type: EKV
Direct Newton iteration for .op point succeeded.

Date: Sat Nov 13 16:24:31 2021
Total elapsed time: 0.668 seconds.

tnom = 27
temp = 27
method = modified trap
totiter = 24790
traniter = 24740
tranpoints = 4741
accept = 3806
rejected = 935
matrix size = 131
fillins = 103
solver = Normal
Thread vector: 70.5/19.3[8] 15.5/6.8[8] 4.7/1.9[7] 0.8/1.4[1]  2592/500
Matrix Compiler1: 14.78 KB object code size  3.0/1.6/[0.8]
Matrix Compiler2: 14.83 KB object code size  1.4/2.1/[1.1]

